<!-- Example Nifi flow configuration -->
<flow>
  <!-- Your Nifi processors and connections go here -->
</flow>
